LTspice 24.0.11 for Windows
Circuit: * C:\iverilog\include\GitHub\ECE-3331-Robotics-Project-Lab\HardwareSchematics\Final\DualComparatorOverCurrent.asc
Start Time: Sat Apr  6 22:41:37 2024
solver = Normal
Maximum thread count: 8
tnom = 27
temp = 27
method = modified trap
Direct Newton iteration for .op point succeeded.
Total elapsed time: 0.176 seconds.

